Adsorption isotherm of Xenon on MOF-74-Ni
DOI: 10.1021/ar5003126
Article source: Figure 3b
Adsorbate Xenon: InChIKey FHNFHKCVQCLJFQ-UHFFFAOYSA-N
Kind: experiment
Temperature: 298 K
pressure (bar)	uptake (wt%)
0	0
0.054422	0.957209
0.099773	1.33553
0.199546	1.89686
0.297052	2.65218
0.399093	3.21308
0.496599	4.16195
0.594104	4.91727
0.696145	5.67171
0.895692	6.79438
0.993197	7.5497
