Adsorption isotherm of Xenon on IRMOF-1
DOI: 10.1016/j.micromeso.2012.11.013
Adsorbate Xenon: InChIKey FHNFHKCVQCLJFQ-UHFFFAOYSA-N
Temperature: 298 K
pressure (bar)	uptake (mmol/g)
0.112524	0.304317
0.380129	0.650796
0.873087	0.921218
1.84492	1.3353
2.80266	1.74094
3.76041	2.13812
4.73224	2.47615
5.64773	2.78882
6.5914	3.05925
7.5914	3.30432
8.57731	3.50713
9.53506	3.67615
9.98576	3.77756
